

        *** GPGPU-Sim Simulator Version 3.2.2  [build 0] ***


GPGPU-Sim PTX: simulation mode 0 (can change with PTX_SIM_MODE_FUNC environment variable:
               1=functional simulation only, 0=detailed performance simulator)
GPGPU-Sim: Configuration options:

-network_mode                           1 # Interconnection network mode
-inter_config_file   config_fermi_islip.icnt # Interconnection network config file
-gpgpu_ptx_use_cuobjdump                    1 # Use cuobjdump to extract ptx and sass from binaries
-gpgpu_experimental_lib_support                    0 # Try to extract code from cuda libraries [Broken because of unknown cudaGetExportTable]
-gpgpu_ptx_convert_to_ptxplus                    0 # Convert SASS (native ISA) to ptxplus and run ptxplus
-gpgpu_ptx_force_max_capability                   20 # Force maximum compute capability
-gpgpu_ptx_inst_debug_to_file                    0 # Dump executed instructions' debug information to file
-gpgpu_ptx_inst_debug_file       inst_debug.txt # Executed instructions' debug output file
-gpgpu_ptx_inst_debug_thread_uid                    1 # Thread UID for executed instructions' debug output
-gpgpu_simd_model                       1 # 1 = post-dominator
-gpgpu_shader_core_pipeline              1536:32 # shader core pipeline config, i.e., {<nthread>:<warpsize>}
-gpgpu_tex_cache:l1  4:128:24,L:R:m:N:L,F:128:4,128:2 # per-shader L1 texture cache  (READ-ONLY) config  {<nsets>:<bsize>:<assoc>,<rep>:<wr>:<alloc>:<wr_alloc>,<mshr>:<N>:<merge>,<mq>:<rf>}
-gpgpu_const_cache:l1 64:64:2,L:R:f:N:L,A:2:32,4 # per-shader L1 constant memory cache  (READ-ONLY) config  {<nsets>:<bsize>:<assoc>,<rep>:<wr>:<alloc>:<wr_alloc>,<mshr>:<N>:<merge>,<mq>} 
-gpgpu_cache:il1     4:128:4,L:R:f:N:L,A:2:32,4 # shader L1 instruction cache config  {<nsets>:<bsize>:<assoc>,<rep>:<wr>:<alloc>:<wr_alloc>,<mshr>:<N>:<merge>,<mq>} 
-gpgpu_cache:dl1     32:128:4,L:L:m:N:H,A:32:8,8 # per-shader L1 data cache config  {<nsets>:<bsize>:<assoc>,<rep>:<wr>:<alloc>:<wr_alloc>,<mshr>:<N>:<merge>,<mq> | none}
-gpgpu_cache:dl1PrefL1                 none # per-shader L1 data cache config  {<nsets>:<bsize>:<assoc>,<rep>:<wr>:<alloc>:<wr_alloc>,<mshr>:<N>:<merge>,<mq> | none}
-gpgpu_cache:dl1PreShared                 none # per-shader L1 data cache config  {<nsets>:<bsize>:<assoc>,<rep>:<wr>:<alloc>:<wr_alloc>,<mshr>:<N>:<merge>,<mq> | none}
-gmem_skip_L1D                          0 # global memory access skip L1D cache (implements -Xptxas -dlcm=cg, default=no skip)
-gpgpu_perfect_mem                      0 # enable perfect memory mode (no cache miss)
-n_regfile_gating_group                    4 # group of lanes that should be read/written together)
-gpgpu_clock_gated_reg_file                    0 # enable clock gated reg file for power calculations
-gpgpu_clock_gated_lanes                    0 # enable clock gated lanes for power calculations
-gpgpu_shader_registers                32768 # Number of registers per shader core. Limits number of concurrent CTAs. (default 8192)
-gpgpu_shader_cta                       8 # Maximum number of concurrent CTAs in shader (default 8)
-gpgpu_num_cta_barriers                   16 # Maximum number of named barriers per CTA (default 16)
-gpgpu_n_clusters                      15 # number of processing clusters
-gpgpu_n_cores_per_cluster                    1 # number of simd cores per cluster
-gpgpu_n_cluster_ejection_buffer_size                    8 # number of packets in ejection buffer
-gpgpu_n_ldst_response_buffer_size                    2 # number of response packets in ld/st unit ejection buffer
-gpgpu_shmem_size                   16384 # Size of shared memory per shader core (default 16kB)
-gpgpu_shmem_size                   49152 # Size of shared memory per shader core (default 16kB)
-gpgpu_shmem_size_PrefL1                16384 # Size of shared memory per shader core (default 16kB)
-gpgpu_shmem_size_PrefShared                16384 # Size of shared memory per shader core (default 16kB)
-gpgpu_shmem_num_banks                   32 # Number of banks in the shared memory in each shader core (default 16)
-gpgpu_shmem_limited_broadcast                    0 # Limit shared memory to do one broadcast per cycle (default on)
-gpgpu_shmem_warp_parts                    1 # Number of portions a warp is divided into for shared memory bank conflict check 
-gpgpu_warpdistro_shader                   -1 # Specify which shader core to collect the warp size distribution from
-gpgpu_warp_issue_shader                    0 # Specify which shader core to collect the warp issue distribution from
-gpgpu_local_mem_map                    1 # Mapping from local memory space address to simulated GPU physical address space (default = enabled)
-gpgpu_num_reg_banks                   16 # Number of register banks (default = 8)
-gpgpu_reg_bank_use_warp_id                    0 # Use warp ID in mapping registers to banks (default = off)
-gpgpu_operand_collector_num_units_sp                    6 # number of collector units (default = 4)
-gpgpu_operand_collector_num_units_sfu                    8 # number of collector units (default = 4)
-gpgpu_operand_collector_num_units_mem                    2 # number of collector units (default = 2)
-gpgpu_operand_collector_num_units_gen                    0 # number of collector units (default = 0)
-gpgpu_operand_collector_num_in_ports_sp                    2 # number of collector unit in ports (default = 1)
-gpgpu_operand_collector_num_in_ports_sfu                    1 # number of collector unit in ports (default = 1)
-gpgpu_operand_collector_num_in_ports_mem                    1 # number of collector unit in ports (default = 1)
-gpgpu_operand_collector_num_in_ports_gen                    0 # number of collector unit in ports (default = 0)
-gpgpu_operand_collector_num_out_ports_sp                    2 # number of collector unit in ports (default = 1)
-gpgpu_operand_collector_num_out_ports_sfu                    1 # number of collector unit in ports (default = 1)
-gpgpu_operand_collector_num_out_ports_mem                    1 # number of collector unit in ports (default = 1)
-gpgpu_operand_collector_num_out_ports_gen                    0 # number of collector unit in ports (default = 0)
-gpgpu_coalesce_arch                   13 # Coalescing arch (default = 13, anything else is off for now)
-gpgpu_num_sched_per_core                    2 # Number of warp schedulers per core
-gpgpu_max_insn_issue_per_warp                    1 # Max number of instructions that can be issued per warp in one cycle by scheduler
-gpgpu_simt_core_sim_order                    1 # Select the simulation order of cores in a cluster (0=Fix, 1=Round-Robin)
-gpgpu_pipeline_widths        2,1,1,2,1,1,2 # Pipeline widths ID_OC_SP,ID_OC_SFU,ID_OC_MEM,OC_EX_SP,OC_EX_SFU,OC_EX_MEM,EX_WB
-gpgpu_num_sp_units                     2 # Number of SP units (default=1)
-gpgpu_num_sfu_units                    1 # Number of SF units (default=1)
-gpgpu_num_mem_units                    1 # Number if ldst units (default=1) WARNING: not hooked up to anything
-gpgpu_scheduler                      gto # Scheduler configuration: < lrr | gto | two_level_active > If two_level_active:<num_active_warps>:<inner_prioritization>:<outer_prioritization>For complete list of prioritization values see shader.h enum scheduler_prioritization_typeDefault: gto
-gpgpu_dram_scheduler                    1 # 0 = fifo, 1 = FR-FCFS (defaul)
-gpgpu_dram_partition_queues              8:8:8:8 # i2$:$2d:d2$:$2i
-l2_ideal                               0 # Use a ideal L2 cache that always hit
-gpgpu_cache:dl2     64:128:8,L:B:m:W:L,A:32:4,4:0,32 # unified banked L2 data cache config  {<nsets>:<bsize>:<assoc>,<rep>:<wr>:<alloc>:<wr_alloc>,<mshr>:<N>:<merge>,<mq>}
-gpgpu_cache:dl2_texture_only                    0 # L2 cache used for texture only
-gpgpu_n_mem                            6 # number of memory modules (e.g. memory controllers) in gpu
-gpgpu_n_sub_partition_per_mchannel                    2 # number of memory subpartition in each memory module
-gpgpu_n_mem_per_ctrlr                    2 # number of memory chips per memory controller
-gpgpu_memlatency_stat                   14 # track and display latency statistics 0x2 enables MC, 0x4 enables queue logs
-gpgpu_frfcfs_dram_sched_queue_size                   16 # 0 = unlimited (default); # entries per chip
-gpgpu_dram_return_queue_size                  116 # 0 = unlimited (default); # entries per chip
-gpgpu_dram_buswidth                    4 # default = 4 bytes (8 bytes per cycle at DDR)
-gpgpu_dram_burst_length                    8 # Burst length of each DRAM request (default = 4 data bus cycle)
-dram_data_command_freq_ratio                    4 # Frequency ratio between DRAM data bus and command bus (default = 2 times, i.e. DDR)
-gpgpu_dram_timing_opt nbk=16:CCD=2:RRD=6:RCD=12:RAS=28:RP=12:RC=40: CL=12:WL=4:CDLR=5:WR=12:nbkgrp=4:CCDL=3:RTPL=2 # DRAM timing parameters = {nbk:tCCD:tRRD:tRCD:tRAS:tRP:tRC:CL:WL:tCDLR:tWR:nbkgrp:tCCDL:tRTPL}
-rop_latency                          120 # ROP queue latency (default 85)
-dram_latency                         100 # DRAM latency (default 30)
-gpgpu_mem_addr_mapping dramid@8;00000000.00000000.00000000.00000000.0000RRRR.RRRRRRRR.BBBCCCCB.CCSSSSSS # mapping memory address to dram model {dramid@<start bit>;<memory address map>}
-gpgpu_mem_addr_test                    0 # run sweep test to check address mapping for aliased address
-gpgpu_mem_address_mask                    1 # 0 = old addressing mask, 1 = new addressing mask, 2 = new add. mask + flipped bank sel and chip sel bits
-gpuwattch_xml_file  gpuwattch_gtx480.xml # GPUWattch XML file
-power_simulation_enabled                    1 # Turn on power simulator (1=On, 0=Off)
-power_per_cycle_dump                    0 # Dump detailed power output each cycle
-power_trace_enabled                    0 # produce a file for the power trace (1=On, 0=Off)
-power_trace_zlevel                     6 # Compression level of the power trace output log (0=no comp, 9=highest)
-steady_power_levels_enabled                    0 # produce a file for the steady power levels (1=On, 0=Off)
-steady_state_definition                  8:4 # allowed deviation:number of samples
-gpgpu_max_cycle                        0 # terminates gpu simulation early (0 = no limit)
-gpgpu_max_insn                         0 # terminates gpu simulation early (0 = no limit)
-gpgpu_max_cta                          0 # terminates gpu simulation early (0 = no limit)
-gpgpu_runtime_stat                   500 # display runtime statistics such as dram utilization {<freq>:<flag>}
-liveness_message_freq                    1 # Minimum number of seconds between simulation liveness messages (0 = always print)
-gpgpu_flush_l1_cache                    0 # Flush L1 cache at the end of each kernel call
-gpgpu_flush_l2_cache                    0 # Flush L2 cache at the end of each kernel call
-gpgpu_deadlock_detect                    1 # Stop the simulation at deadlock (1=on (default), 0=off)
-gpgpu_ptx_instruction_classification                    0 # if enabled will classify ptx instruction types per kernel (Max 255 kernels now)
-gpgpu_ptx_sim_mode                     0 # Select between Performance (default) or Functional simulation (1)
-gpgpu_clock_domains 700.0:700.0:700.0:924.0 # Clock Domain Frequencies in MhZ {<Core Clock>:<ICNT Clock>:<L2 Clock>:<DRAM Clock>}
-gpgpu_max_concurrent_kernel                    8 # maximum kernels that can run concurrently on GPU
-gpgpu_cflog_interval                    0 # Interval between each snapshot in control flow logger
-visualizer_enabled                     0 # Turn on visualizer output (1=On, 0=Off)
-visualizer_outputfile                 NULL # Specifies the output log file for visualizer
-visualizer_zlevel                      6 # Compression level of the visualizer output log (0=no comp, 9=highest)
-trace_enabled                          0 # Turn on traces
-trace_components                    none # comma seperated list of traces to enable. Complete list found in trace_streams.tup. Default none
-trace_sampling_core                    0 # The core which is printed using CORE_DPRINTF. Default 0
-trace_sampling_memory_partition                   -1 # The memory partition which is printed using MEMPART_DPRINTF. Default -1 (i.e. all)
-enable_ptx_file_line_stats                    1 # Turn on PTX source line statistic profiling. (1 = On)
-ptx_line_stats_filename gpgpu_inst_stats.txt # Output file for PTX source line statistics.
-save_embedded_ptx                      0 # saves ptx files embedded in binary as <n>.ptx
-keep                                   0 # keep intermediate files created by GPGPU-Sim when interfacing with external programs
-gpgpu_ptx_save_converted_ptxplus                    0 # Saved converted ptxplus to a file
-ptx_opcode_latency_int         4,13,4,5,145 # Opcode latencies for integers <ADD,MAX,MUL,MAD,DIV>Default 1,1,19,25,145
-ptx_opcode_latency_fp          4,13,4,5,39 # Opcode latencies for single precision floating points <ADD,MAX,MUL,MAD,DIV>Default 1,1,1,1,30
-ptx_opcode_latency_dp         8,19,8,8,330 # Opcode latencies for double precision floating points <ADD,MAX,MUL,MAD,DIV>Default 8,8,8,8,335
-ptx_opcode_initiation_int            1,2,2,1,8 # Opcode initiation intervals for integers <ADD,MAX,MUL,MAD,DIV>Default 1,1,4,4,32
-ptx_opcode_initiation_fp            1,2,1,1,4 # Opcode initiation intervals for single precision floating points <ADD,MAX,MUL,MAD,DIV>Default 1,1,1,1,5
-ptx_opcode_initiation_dp         8,16,8,8,130 # Opcode initiation intervals for double precision floating points <ADD,MAX,MUL,MAD,DIV>Default 8,8,8,8,130
DRAM Timing Options:
nbk                                    16 # number of banks
CCD                                     2 # column to column delay
RRD                                     6 # minimal delay between activation of rows in different banks
RCD                                    12 # row to column delay
RAS                                    28 # time needed to activate row
RP                                     12 # time needed to precharge (deactivate) row
RC                                     40 # row cycle time
CDLR                                    5 # switching from write to read (changes tWTR)
WR                                     12 # last data-in to row precharge
CL                                     12 # CAS latency
WL                                      4 # Write latency
nbkgrp                                  4 # number of bank groups
CCDL                                    3 # column to column delay between accesses to different bank groups
RTPL                                    2 # read to precharge delay between accesses to different bank groups
Total number of memory sub partition = 12
addr_dec_mask[CHIP]  = 0000000000000000 	high:64 low:0
addr_dec_mask[BK]    = 000000000000e100 	high:16 low:8
addr_dec_mask[ROW]   = 000000000fff0000 	high:28 low:16
addr_dec_mask[COL]   = 0000000000001eff 	high:13 low:0
addr_dec_mask[BURST] = 000000000000003f 	high:6 low:0
sub_partition_id_mask = 0000000000000100
GPGPU-Sim uArch: clock freqs: 700000000.000000:700000000.000000:700000000.000000:924000000.000000
GPGPU-Sim uArch: clock periods: 0.00000000142857142857:0.00000000142857142857:0.00000000142857142857:0.00000000108225108225
*** Initializing Memory Statistics ***
GPGPU-Sim uArch: interconnect node map (shaderID+MemID to icntID)
GPGPU-Sim uArch: Memory nodes ID start from index: 15
GPGPU-Sim uArch:    0   1   2   3   4
GPGPU-Sim uArch:    5   6   7   8   9
GPGPU-Sim uArch:   10  11  12  13  14
GPGPU-Sim uArch:   15  16  17  18  19
GPGPU-Sim uArch:   20  21  22  23  24
GPGPU-Sim uArch:   25  26
GPGPU-Sim uArch: interconnect node reverse map (icntID to shaderID+MemID)
GPGPU-Sim uArch: Memory nodes start from ID: 15
GPGPU-Sim uArch:    0   1   2   3   4
GPGPU-Sim uArch:    5   6   7   8   9
GPGPU-Sim uArch:   10  11  12  13  14
GPGPU-Sim uArch:   15  16  17  18  19
GPGPU-Sim uArch:   20  21  22  23  24
GPGPU-Sim uArch:   25  26
069f3f99c0bd85116c7bfb3e0eab3c01  /root/lab1/naive/reduction
GPGPU-Sim uArch: performance model initialization complete.
GPGPU-Sim PTX: __cudaRegisterFatBinary, fat_cubin_handle = 1, filename=main.cu
self exe links to: /root/lab1/naive/reduction
Running md5sum using "md5sum /root/lab1/naive/reduction "
Running cuobjdump using "$CUDA_INSTALL_PATH/bin/cuobjdump -ptx -elf -sass /root/lab1/naive/reduction > _cuobjdump_complete_output_aSa1u2"
Parsing file _cuobjdump_complete_output_aSa1u2
######### cuobjdump parser ########
## Adding new section ELF
Adding arch: sm_10
Adding identifier: main.cu
## Adding new section PTX
Adding ptx filename: _cuobjdump_1.ptx
Adding arch: sm_10
Adding identifier: main.cu
## Adding new section ELF
Adding arch: sm_10
Adding identifier: support.cu
## Adding new section PTX
Adding ptx filename: _cuobjdump_2.ptx
Adding arch: sm_10
Adding identifier: support.cu
Done parsing!!!
GPGPU-Sim PTX: __cudaRegisterFunction _Z9reductionPfS_j : hostFun 0x0x400e40, fat_cubin_handle = 1
GPGPU-Sim PTX: allocating shared region for "__cuda___cuda_local_var_16314_35_non_const_partialSum20" from 0x0 to 0x1000 (shared memory space)
GPGPU-Sim PTX: instruction assembly for function '_Z9reductionPfS_j'...   done.
GPGPU-Sim PTX: finding reconvergence points for '_Z9reductionPfS_j'...
GPGPU-Sim PTX: Finding dominators for '_Z9reductionPfS_j'...
GPGPU-Sim PTX: Finding immediate dominators for '_Z9reductionPfS_j'...
GPGPU-Sim PTX: Finding postdominators for '_Z9reductionPfS_j'...
GPGPU-Sim PTX: Finding immediate postdominators for '_Z9reductionPfS_j'...
GPGPU-Sim PTX: pre-decoding instructions for '_Z9reductionPfS_j'...
GPGPU-Sim PTX: reconvergence points for _Z9reductionPfS_j...
GPGPU-Sim PTX:  1 (potential) branch divergence @  PC=0x060 (_1.ptx:73) @%p1 bra $Lt_0_4610;
GPGPU-Sim PTX:    immediate post dominator      @  PC=0x0b0 (_1.ptx:87) add.u32 %r8, %r5, %r1;
GPGPU-Sim PTX:  2 (potential) branch divergence @  PC=0x098 (_1.ptx:81) bra.uni $Lt_0_4354;
GPGPU-Sim PTX:    immediate post dominator      @  PC=0x0b0 (_1.ptx:87) add.u32 %r8, %r5, %r1;
GPGPU-Sim PTX:  3 (potential) branch divergence @  PC=0x0f0 (_1.ptx:97) @%p2 bra $Lt_0_5122;
GPGPU-Sim PTX:    immediate post dominator      @  PC=0x140 (_1.ptx:111) mov.u32 %r11, 1;
GPGPU-Sim PTX:  4 (potential) branch divergence @  PC=0x128 (_1.ptx:105) bra.uni $Lt_0_4866;
GPGPU-Sim PTX:    immediate post dominator      @  PC=0x140 (_1.ptx:111) mov.u32 %r11, 1;
GPGPU-Sim PTX:  5 (potential) branch divergence @  PC=0x150 (_1.ptx:113) @%p3 bra $Lt_0_5378;
GPGPU-Sim PTX:    immediate post dominator      @  PC=0x200 (_1.ptx:143) bar.sync 0;
GPGPU-Sim PTX:  6 (potential) branch divergence @  PC=0x180 (_1.ptx:122) @%p4 bra $Lt_0_6146;
GPGPU-Sim PTX:    immediate post dominator      @  PC=0x1e8 (_1.ptx:138) mul.lo.u32 %r12, %r12, 2;
GPGPU-Sim PTX:  7 (potential) branch divergence @  PC=0x1f8 (_1.ptx:140) @%p5 bra $Lt_0_5890;
GPGPU-Sim PTX:    immediate post dominator      @  PC=0x200 (_1.ptx:143) bar.sync 0;
GPGPU-Sim PTX:  8 (potential) branch divergence @  PC=0x218 (_1.ptx:146) @%p6 bra $Lt_0_6914;
GPGPU-Sim PTX:    immediate post dominator      @  PC=0x250 (_1.ptx:156) exit;
GPGPU-Sim PTX: ... end of reconvergence points for _Z9reductionPfS_j
GPGPU-Sim PTX: ... done pre-decoding instructions for '_Z9reductionPfS_j'.
GPGPU-Sim PTX: finished parsing EMBEDDED .ptx file _1.ptx
Adding _cuobjdump_1.ptx with cubin handle 1
GPGPU-Sim PTX: extracting embedded .ptx to temporary file "_ptx_xW2TRJ"
Running: cat _ptx_xW2TRJ | sed 's/.version 1.5/.version 1.4/' | sed 's/, texmode_independent//' | sed 's/\(\.extern \.const\[1\] .b8 \w\+\)\[\]/\1\[1\]/' | sed 's/const\[.\]/const\[0\]/g' > _ptx2_FyMNer
GPGPU-Sim PTX: generating ptxinfo using "$CUDA_INSTALL_PATH/bin/ptxas --gpu-name=sm_20 -v _ptx2_FyMNer --output-file  /dev/null 2> _ptx_xW2TRJinfo"
GPGPU-Sim PTX: Kernel '_Z9reductionPfS_j' : regs=10, lmem=0, smem=4096, cmem=52
GPGPU-Sim PTX: removing ptxinfo using "rm -f _ptx_xW2TRJ _ptx2_FyMNer _ptx_xW2TRJinfo"
GPGPU-Sim PTX: loading globals with explicit initializers... 
GPGPU-Sim PTX: finished loading globals (0 bytes total).
GPGPU-Sim PTX: loading constants with explicit initializers...  done.
GPGPU-Sim PTX: __cudaRegisterFatBinary, fat_cubin_handle = 2, filename=support.cu

Setting up the problem...0.000618 s
    Input size = 32768
Allocating device variables...0.000004 s
Copying data from host to device...0.003528 s
Launching kernel...
GPGPU-Sim PTX: cudaLaunch for 0x0x400e40 (mode=performance simulation) on stream 0
GPGPU-Sim PTX: pushing kernel '_Z9reductionPfS_j' to stream 0, gridDim= (32,1,1) blockDim = (512,1,1) 
kernel '_Z9reductionPfS_j' transfer to GPU hardware scheduler
GPGPU-Sim uArch: Shader 1 bind to kernel 1 '_Z9reductionPfS_j'
GPGPU-Sim uArch: CTA/core = 3, limited by: threads
GPGPU-Sim uArch: core:  1, cta: 0 initialized @(1,0)
GPGPU-Sim uArch: Shader 2 bind to kernel 1 '_Z9reductionPfS_j'
GPGPU-Sim uArch: core:  2, cta: 0 initialized @(1,0)
GPGPU-Sim uArch: Shader 3 bind to kernel 1 '_Z9reductionPfS_j'
GPGPU-Sim uArch: core:  3, cta: 0 initialized @(1,0)
GPGPU-Sim uArch: Shader 4 bind to kernel 1 '_Z9reductionPfS_j'
GPGPU-Sim uArch: core:  4, cta: 0 initialized @(1,0)
GPGPU-Sim uArch: Shader 5 bind to kernel 1 '_Z9reductionPfS_j'
GPGPU-Sim uArch: core:  5, cta: 0 initialized @(1,0)
GPGPU-Sim uArch: Shader 6 bind to kernel 1 '_Z9reductionPfS_j'
GPGPU-Sim uArch: core:  6, cta: 0 initialized @(1,0)
GPGPU-Sim uArch: Shader 7 bind to kernel 1 '_Z9reductionPfS_j'
GPGPU-Sim uArch: core:  7, cta: 0 initialized @(1,0)
GPGPU-Sim uArch: Shader 8 bind to kernel 1 '_Z9reductionPfS_j'
GPGPU-Sim uArch: core:  8, cta: 0 initialized @(1,0)
GPGPU-Sim uArch: Shader 9 bind to kernel 1 '_Z9reductionPfS_j'
GPGPU-Sim uArch: core:  9, cta: 0 initialized @(1,0)
GPGPU-Sim uArch: Shader 10 bind to kernel 1 '_Z9reductionPfS_j'
GPGPU-Sim uArch: core: 10, cta: 0 initialized @(1,0)
GPGPU-Sim uArch: Shader 11 bind to kernel 1 '_Z9reductionPfS_j'
GPGPU-Sim uArch: core: 11, cta: 0 initialized @(1,0)
GPGPU-Sim uArch: Shader 12 bind to kernel 1 '_Z9reductionPfS_j'
GPGPU-Sim uArch: core: 12, cta: 0 initialized @(1,0)
GPGPU-Sim uArch: Shader 13 bind to kernel 1 '_Z9reductionPfS_j'
GPGPU-Sim uArch: core: 13, cta: 0 initialized @(1,0)
GPGPU-Sim uArch: Shader 14 bind to kernel 1 '_Z9reductionPfS_j'
GPGPU-Sim uArch: core: 14, cta: 0 initialized @(1,0)
GPGPU-Sim uArch: Shader 0 bind to kernel 1 '_Z9reductionPfS_j'
GPGPU-Sim uArch: core:  0, cta: 0 initialized @(1,0)
GPGPU-Sim uArch: core:  1, cta: 1 initialized @(2,0)
GPGPU-Sim uArch: core:  2, cta: 1 initialized @(2,0)
GPGPU-Sim uArch: core:  3, cta: 1 initialized @(2,0)
GPGPU-Sim uArch: core:  4, cta: 1 initialized @(2,0)
GPGPU-Sim uArch: core:  5, cta: 1 initialized @(2,0)
GPGPU-Sim uArch: core:  6, cta: 1 initialized @(2,0)
GPGPU-Sim uArch: core:  7, cta: 1 initialized @(2,0)
GPGPU-Sim uArch: core:  8, cta: 1 initialized @(2,0)
GPGPU-Sim uArch: core:  9, cta: 1 initialized @(2,0)
GPGPU-Sim uArch: core: 10, cta: 1 initialized @(2,0)
GPGPU-Sim uArch: core: 11, cta: 1 initialized @(2,0)
GPGPU-Sim uArch: core: 12, cta: 1 initialized @(2,0)
GPGPU-Sim uArch: core: 13, cta: 1 initialized @(2,0)
GPGPU-Sim uArch: core: 14, cta: 1 initialized @(2,0)
GPGPU-Sim uArch: core:  0, cta: 1 initialized @(2,0)
GPGPU-Sim uArch: core:  1, cta: 2 initialized @(3,0)
GPGPU-Sim uArch: core:  2, cta: 2 initialized @(3,0)
GPGPU-Sim PTX: 100000 instructions simulated : ctaid=(2,0,0) tid=(191,0,0)
GPGPU-Sim uArch: cycles simulated: 500  inst.: 124768 (ipc=249.5) sim_rate=124768 (inst/sec) elapsed = 0:0:00:01 / Mon Jan 28 01:09:34 2019
GPGPU-Sim PTX: 200000 instructions simulated : ctaid=(18,0,0) tid=(127,0,0)
GPGPU-Sim PTX: 300000 instructions simulated : ctaid=(2,0,0) tid=(191,0,0)
GPGPU-Sim PTX: 400000 instructions simulated : ctaid=(31,0,0) tid=(351,0,0)
GPGPU-Sim PTX: 500000 instructions simulated : ctaid=(31,0,0) tid=(511,0,0)
GPGPU-Sim PTX: 600000 instructions simulated : ctaid=(22,0,0) tid=(511,0,0)
GPGPU-Sim PTX: 700000 instructions simulated : ctaid=(31,0,0) tid=(63,0,0)
GPGPU-Sim PTX: 800000 instructions simulated : ctaid=(15,0,0) tid=(479,0,0)
GPGPU-Sim PTX: 900000 instructions simulated : ctaid=(22,0,0) tid=(287,0,0)
GPGPU-Sim PTX: 1000000 instructions simulated : ctaid=(0,0,0) tid=(255,0,0)
GPGPU-Sim PTX: 1100000 instructions simulated : ctaid=(22,0,0) tid=(382,0,0)
GPGPU-Sim PTX: 1200000 instructions simulated : ctaid=(3,0,0) tid=(471,0,0)
GPGPU-Sim PTX: 1300000 instructions simulated : ctaid=(10,0,0) tid=(495,0,0)
GPGPU-Sim PTX: 1400000 instructions simulated : ctaid=(27,0,0) tid=(44,0,0)
GPGPU-Sim uArch: cycles simulated: 4000  inst.: 1376210 (ipc=344.1) sim_rate=688105 (inst/sec) elapsed = 0:0:00:02 / Mon Jan 28 01:09:36 2019
GPGPU-Sim PTX: 1500000 instructions simulated : ctaid=(18,0,0) tid=(472,0,0)
GPGPU-Sim PTX: 1600000 instructions simulated : ctaid=(4,0,0) tid=(502,0,0)
GPGPU-Sim PTX: 1700000 instructions simulated : ctaid=(15,0,0) tid=(438,0,0)
GPGPU-Sim PTX: 1800000 instructions simulated : ctaid=(1,0,0) tid=(404,0,0)
GPGPU-Sim PTX: 1900000 instructions simulated : ctaid=(7,0,0) tid=(92,0,0)
GPGPU-Sim PTX: 2000000 instructions simulated : ctaid=(9,0,0) tid=(434,0,0)
GPGPU-Sim uArch: Shader 6 finished CTA #0 (5415,0), 1 CTAs running
GPGPU-Sim uArch: Shader 7 finished CTA #0 (5430,0), 1 CTAs running
GPGPU-Sim uArch: Shader 14 finished CTA #0 (5430,0), 1 CTAs running
GPGPU-Sim uArch: Shader 8 finished CTA #0 (5436,0), 1 CTAs running
GPGPU-Sim uArch: Shader 9 finished CTA #0 (5438,0), 1 CTAs running
GPGPU-Sim uArch: Shader 4 finished CTA #0 (5439,0), 1 CTAs running
GPGPU-Sim uArch: Shader 10 finished CTA #0 (5439,0), 1 CTAs running
GPGPU-Sim uArch: Shader 12 finished CTA #0 (5442,0), 1 CTAs running
GPGPU-Sim uArch: Shader 11 finished CTA #0 (5451,0), 1 CTAs running
GPGPU-Sim PTX: 2100000 instructions simulated : ctaid=(27,0,0) tid=(429,0,0)
GPGPU-Sim uArch: Shader 0 finished CTA #0 (5466,0), 1 CTAs running
GPGPU-Sim uArch: Shader 3 finished CTA #0 (5468,0), 1 CTAs running
GPGPU-Sim uArch: Shader 5 finished CTA #0 (5488,0), 1 CTAs running
GPGPU-Sim uArch: Shader 13 finished CTA #0 (5562,0), 1 CTAs running
GPGPU-Sim PTX: 2200000 instructions simulated : ctaid=(29,0,0) tid=(478,0,0)
GPGPU-Sim PTX: 2300000 instructions simulated : ctaid=(18,0,0) tid=(466,0,0)
GPGPU-Sim uArch: cycles simulated: 6000  inst.: 2218898 (ipc=369.8) sim_rate=739632 (inst/sec) elapsed = 0:0:00:03 / Mon Jan 28 01:09:37 2019
GPGPU-Sim uArch: Shader 2 finished CTA #0 (6161,0), 2 CTAs running
GPGPU-Sim uArch: Shader 0 finished CTA #1 (6199,0), 0 CTAs running
GPGPU-Sim uArch: Shader 0 empty (release kernel 1 '_Z9reductionPfS_j').
GPGPU-Sim uArch: Shader 6 finished CTA #1 (6207,0), 0 CTAs running
GPGPU-Sim uArch: Shader 6 empty (release kernel 1 '_Z9reductionPfS_j').
GPGPU-Sim uArch: Shader 7 finished CTA #1 (6218,0), 0 CTAs running
GPGPU-Sim uArch: Shader 7 empty (release kernel 1 '_Z9reductionPfS_j').
GPGPU-Sim uArch: Shader 5 finished CTA #1 (6229,0), 0 CTAs running
GPGPU-Sim uArch: Shader 5 empty (release kernel 1 '_Z9reductionPfS_j').
GPGPU-Sim uArch: Shader 12 finished CTA #1 (6234,0), 0 CTAs running
GPGPU-Sim uArch: Shader 12 empty (release kernel 1 '_Z9reductionPfS_j').
GPGPU-Sim uArch: Shader 10 finished CTA #1 (6247,0), 0 CTAs running
GPGPU-Sim uArch: Shader 10 empty (release kernel 1 '_Z9reductionPfS_j').
GPGPU-Sim uArch: Shader 4 finished CTA #1 (6252,0), 0 CTAs running
GPGPU-Sim uArch: Shader 4 empty (release kernel 1 '_Z9reductionPfS_j').
GPGPU-Sim uArch: Shader 8 finished CTA #1 (6256,0), 0 CTAs running
GPGPU-Sim uArch: Shader 8 empty (release kernel 1 '_Z9reductionPfS_j').
GPGPU-Sim uArch: Shader 3 finished CTA #1 (6261,0), 0 CTAs running
GPGPU-Sim uArch: Shader 3 empty (release kernel 1 '_Z9reductionPfS_j').
GPGPU-Sim uArch: Shader 9 finished CTA #1 (6268,0), 0 CTAs running
GPGPU-Sim uArch: Shader 9 empty (release kernel 1 '_Z9reductionPfS_j').
GPGPU-Sim uArch: Shader 11 finished CTA #1 (6277,0), 0 CTAs running
GPGPU-Sim uArch: Shader 11 empty (release kernel 1 '_Z9reductionPfS_j').
GPGPU-Sim uArch: Shader 13 finished CTA #1 (6281,0), 0 CTAs running
GPGPU-Sim uArch: Shader 13 empty (release kernel 1 '_Z9reductionPfS_j').
GPGPU-Sim uArch: Shader 14 finished CTA #1 (6309,0), 0 CTAs running
GPGPU-Sim uArch: Shader 14 empty (release kernel 1 '_Z9reductionPfS_j').
GPGPU-Sim uArch: Shader 1 finished CTA #0 (6376,0), 2 CTAs running
GPGPU-Sim uArch: Shader 2 finished CTA #1 (6787,0), 1 CTAs running
GPGPU-Sim PTX: 2400000 instructions simulated : ctaid=(31,0,0) tid=(396,0,0)
GPGPU-Sim uArch: Shader 1 finished CTA #1 (7104,0), 1 CTAs running
GPGPU-Sim uArch: Shader 2 finished CTA #2 (7764,0), 0 CTAs running
GPGPU-Sim uArch: Shader 2 empty (release kernel 1 '_Z9reductionPfS_j').
GPGPU-Sim uArch: Shader 1 finished CTA #2 (7824,0), 0 CTAs running
GPGPU-Sim uArch: Shader 1 empty (release kernel 1 '_Z9reductionPfS_j').
GPGPU-Sim uArch: GPU detected kernel '_Z9reductionPfS_j' finished on shader 1.
kernel_name = _Z9reductionPfS_j 
kernel_launch_uid = 1 
gpu_sim_cycle = 7825
gpu_sim_insn = 2342720
gpu_ipc =     299.3891
gpu_tot_sim_cycle = 7825
gpu_tot_sim_insn = 2342720
gpu_tot_ipc =     299.3891
gpu_tot_issued_cta = 0
gpu_stall_dramfull = 470
gpu_stall_icnt2sh    = 8996
gpu_total_sim_rate=780906

========= Core cache stats =========
L1I_cache:
	L1I_total_cache_accesses = 62123
	L1I_total_cache_misses = 2347
	L1I_total_cache_miss_rate = 0.0378
	L1I_total_cache_pending_hits = 0
	L1I_total_cache_reservation_fails = 929
L1D_cache:
	L1D_cache_core[0]: Access = 66, Miss = 66, Miss_rate = 1.000, Pending_hits = 0, Reservation_fails = 0
	L1D_cache_core[1]: Access = 99, Miss = 99, Miss_rate = 1.000, Pending_hits = 0, Reservation_fails = 904
	L1D_cache_core[2]: Access = 99, Miss = 99, Miss_rate = 1.000, Pending_hits = 0, Reservation_fails = 867
	L1D_cache_core[3]: Access = 66, Miss = 66, Miss_rate = 1.000, Pending_hits = 0, Reservation_fails = 0
	L1D_cache_core[4]: Access = 66, Miss = 66, Miss_rate = 1.000, Pending_hits = 0, Reservation_fails = 0
	L1D_cache_core[5]: Access = 66, Miss = 66, Miss_rate = 1.000, Pending_hits = 0, Reservation_fails = 0
	L1D_cache_core[6]: Access = 66, Miss = 66, Miss_rate = 1.000, Pending_hits = 0, Reservation_fails = 0
	L1D_cache_core[7]: Access = 66, Miss = 66, Miss_rate = 1.000, Pending_hits = 0, Reservation_fails = 0
	L1D_cache_core[8]: Access = 66, Miss = 66, Miss_rate = 1.000, Pending_hits = 0, Reservation_fails = 0
	L1D_cache_core[9]: Access = 66, Miss = 66, Miss_rate = 1.000, Pending_hits = 0, Reservation_fails = 0
	L1D_cache_core[10]: Access = 66, Miss = 66, Miss_rate = 1.000, Pending_hits = 0, Reservation_fails = 0
	L1D_cache_core[11]: Access = 66, Miss = 66, Miss_rate = 1.000, Pending_hits = 0, Reservation_fails = 0
	L1D_cache_core[12]: Access = 66, Miss = 66, Miss_rate = 1.000, Pending_hits = 0, Reservation_fails = 0
	L1D_cache_core[13]: Access = 66, Miss = 66, Miss_rate = 1.000, Pending_hits = 0, Reservation_fails = 0
	L1D_cache_core[14]: Access = 66, Miss = 66, Miss_rate = 1.000, Pending_hits = 0, Reservation_fails = 0
	L1D_total_cache_accesses = 1056
	L1D_total_cache_misses = 1056
	L1D_total_cache_miss_rate = 1.0000
	L1D_total_cache_pending_hits = 0
	L1D_total_cache_reservation_fails = 1771
	L1D_cache_data_port_util = 0.000
	L1D_cache_fill_port_util = 0.011
L1C_cache:
	L1C_total_cache_accesses = 2080
	L1C_total_cache_misses = 480
	L1C_total_cache_miss_rate = 0.2308
	L1C_total_cache_pending_hits = 0
	L1C_total_cache_reservation_fails = 302
L1T_cache:
	L1T_total_cache_accesses = 0
	L1T_total_cache_misses = 0
	L1T_total_cache_pending_hits = 0
	L1T_total_cache_reservation_fails = 0

Total_core_cache_stats:
	Total_core_cache_stats_breakdown[GLOBAL_ACC_R][MISS] = 1024
	Total_core_cache_stats_breakdown[GLOBAL_ACC_R][RESERVATION_FAIL] = 1771
	Total_core_cache_stats_breakdown[CONST_ACC_R][HIT] = 1600
	Total_core_cache_stats_breakdown[CONST_ACC_R][MISS] = 480
	Total_core_cache_stats_breakdown[CONST_ACC_R][RESERVATION_FAIL] = 302
	Total_core_cache_stats_breakdown[GLOBAL_ACC_W][MISS] = 32
	Total_core_cache_stats_breakdown[INST_ACC_R][HIT] = 59776
	Total_core_cache_stats_breakdown[INST_ACC_R][MISS] = 2347
	Total_core_cache_stats_breakdown[INST_ACC_R][RESERVATION_FAIL] = 929
Shader 0 warp_id issue ditsribution:
warp_id:
0, 1, 2, 3, 4, 5, 6, 7, 8, 9, 10, 11, 12, 13, 14, 15, 16, 17, 18, 19, 20, 21, 22, 23, 24, 25, 26, 27, 28, 29, 30, 31, 
distro:
251, 197, 209, 197, 221, 197, 209, 197, 233, 197, 209, 197, 221, 197, 209, 197, 251, 197, 209, 197, 221, 197, 209, 197, 233, 197, 209, 197, 221, 197, 209, 197, 
gpgpu_n_tot_thrd_icount = 3418112
gpgpu_n_tot_w_icount = 106816
gpgpu_n_stall_shd_mem = 9753
gpgpu_n_mem_read_local = 0
gpgpu_n_mem_write_local = 0
gpgpu_n_mem_read_global = 1024
gpgpu_n_mem_write_global = 32
gpgpu_n_mem_texture = 0
gpgpu_n_mem_const = 15
gpgpu_n_load_insn  = 32768
gpgpu_n_store_insn = 32
gpgpu_n_shmem_insn = 131008
gpgpu_n_tex_insn = 0
gpgpu_n_const_mem_insn = 0
gpgpu_n_param_mem_insn = 65568
gpgpu_n_shmem_bkconflict = 0
gpgpu_n_cache_bkconflict = 0
gpgpu_n_intrawarp_mshr_merge = 0
gpgpu_n_cmem_portconflict = 302
gpgpu_stall_shd_mem[c_mem][bk_conf] = 302
gpgpu_stall_shd_mem[c_mem][mshr_rc] = 0
gpgpu_stall_shd_mem[c_mem][icnt_rc] = 0
gpgpu_stall_shd_mem[c_mem][data_port_stall] = 0
gpgpu_stall_shd_mem[t_mem][mshr_rc] = 0
gpgpu_stall_shd_mem[t_mem][icnt_rc] = 0
gpgpu_stall_shd_mem[t_mem][data_port_stall] = 0
gpgpu_stall_shd_mem[s_mem][bk_conf] = 7680
gpgpu_stall_shd_mem[gl_mem][bk_conf] = 0
gpgpu_stall_shd_mem[gl_mem][coal_stall] = 1771
gpgpu_stall_shd_mem[gl_mem][data_port_stall] = 0
gpgpu_stall_shd_mem[g_mem_ld][mshr_rc] = 0
gpgpu_stall_shd_mem[g_mem_ld][icnt_rc] = 0
gpgpu_stall_shd_mem[g_mem_ld][wb_icnt_rc] = 0
gpgpu_stall_shd_mem[g_mem_ld][wb_rsrv_fail] = 0
gpgpu_stall_shd_mem[g_mem_st][mshr_rc] = 0
gpgpu_stall_shd_mem[g_mem_st][icnt_rc] = 0
gpgpu_stall_shd_mem[g_mem_st][wb_icnt_rc] = 0
gpgpu_stall_shd_mem[g_mem_st][wb_rsrv_fail] = 0
gpgpu_stall_shd_mem[l_mem_ld][mshr_rc] = 0
gpgpu_stall_shd_mem[l_mem_ld][icnt_rc] = 0
gpgpu_stall_shd_mem[l_mem_ld][wb_icnt_rc] = 0
gpgpu_stall_shd_mem[l_mem_ld][wb_rsrv_fail] = 0
gpgpu_stall_shd_mem[l_mem_st][mshr_rc] = 0
gpgpu_stall_shd_mem[l_mem_st][icnt_rc] = 0
gpgpu_stall_shd_mem[l_mem_ld][wb_icnt_rc] = 0
gpgpu_stall_shd_mem[l_mem_ld][wb_rsrv_fail] = 0
gpu_reg_bank_conflict_stalls = 0
Warp Occupancy Distribution:
Stall:7129	W0_Idle:37256	W0_Scoreboard:42481	W1:12096	W2:6144	W3:0	W4:6144	W5:0	W6:0	W7:0	W8:6144	W9:0	W10:0	W11:0	W12:0	W13:0	W14:0	W15:0	W16:6144	W17:0	W18:0	W19:0	W20:0	W21:0	W22:0	W23:0	W24:0	W25:0	W26:0	W27:0	W28:0	W29:0	W30:0	W31:0	W32:70144
traffic_breakdown_coretomem[CONST_ACC_R] = 120 {8:15,}
traffic_breakdown_coretomem[GLOBAL_ACC_R] = 8192 {8:1024,}
traffic_breakdown_coretomem[GLOBAL_ACC_W] = 1280 {40:32,}
traffic_breakdown_coretomem[INST_ACC_R] = 600 {8:75,}
traffic_breakdown_memtocore[CONST_ACC_R] = 1080 {72:15,}
traffic_breakdown_memtocore[GLOBAL_ACC_R] = 139264 {136:1024,}
traffic_breakdown_memtocore[GLOBAL_ACC_W] = 256 {8:32,}
traffic_breakdown_memtocore[INST_ACC_R] = 10200 {136:75,}
maxmrqlatency = 174 
maxdqlatency = 0 
maxmflatency = 750 
averagemflatency = 436 
max_icnt2mem_latency = 70 
max_icnt2sh_latency = 7824 
mrq_lat_table:349 	28 	84 	109 	129 	94 	197 	45 	0 	0 	0 	0 	0 	0 	0 	0 	0 	0 	0 	0 	0 	0 	0 	0 	0 	0 	0 	0 	0 	0 	0 	0 	
dq_lat_table:0 	0 	0 	0 	0 	0 	0 	0 	0 	0 	0 	0 	0 	0 	0 	0 	0 	0 	0 	0 	0 	0 	0 	0 	0 	0 	0 	0 	0 	0 	0 	0 	
mf_lat_table:0 	0 	0 	0 	0 	0 	0 	43 	702 	326 	0 	0 	0 	0 	0 	0 	0 	0 	0 	0 	0 	0 	0 	0 	0 	0 	0 	0 	0 	0 	0 	0 	
icnt2mem_lat_table:0 	0 	0 	489 	376 	264 	17 	0 	0 	0 	0 	0 	0 	0 	0 	0 	0 	0 	0 	0 	0 	0 	0 	0 	
icnt2sh_lat_table:0 	0 	0 	46 	394 	537 	62 	0 	0 	0 	0 	0 	32 	0 	0 	0 	0 	0 	0 	0 	0 	0 	0 	0 	
mf_lat_pw_table:0 	0 	0 	0 	0 	0 	0 	6 	3 	1 	0 	0 	0 	0 	0 	0 	0 	0 	0 	0 	0 	0 	0 	0 	0 	0 	0 	0 	0 	0 	0 	0 	
maximum concurrent accesses to same row:
dram[0]:         1         0         0         0         0         0         0         0         0         0         0         0         0         0         0         0 
dram[1]:         0         0         0         0         0         0         0         0         0         0         0         0         0         0         0         0 
dram[2]:         0         0         0         0         0         0         0         0         0         0         0         0         0         0         0         0 
dram[3]:         0         0         0         0         0         0         0         0         0         0         0         0         0         0         0         0 
dram[4]:         0         0         0         0         0         0         0         0         0         0         0         0         0         0         0         0 
dram[5]:         0         0         0         0         0         0         0         0         0         0         0         0         0         0         0         0 
maximum service time to same row:
dram[0]:       400         0         0         0      1243      1219      1244      1225      1275      1259      1394      1297         0         0         0         0 
dram[1]:      1703         0         0         0      1244      1225      1247      1231      1284      1265      1274      1306         0         0         0         0 
dram[2]:      2947         0         0         0      1247      1226      1250      1232      1292      1260      1282      1347         0         0         0         0 
dram[3]:         0         0         0         0      1260      1229      1254      1235      1294      1269      1290      1344         0         0         0         0 
dram[4]:         0         0         0         0      1215      1231      1221      1237      1247      1276      1279      1363         0         0         0         0 
dram[5]:         0         0         0         0      1216      1241      1222      1247      1254      1283      1291      1361         0         0         0         0 
average row accesses per activate:
dram[0]:  1.000000      -nan      -nan      -nan 10.000000 10.000000 32.000000 32.000000 32.000000 32.000000 12.000000 10.000000      -nan      -nan      -nan      -nan 
dram[1]:  2.000000      -nan      -nan      -nan 10.000000 10.000000 32.000000 32.000000 32.000000 32.000000 12.000000 10.000000      -nan      -nan      -nan      -nan 
dram[2]:  1.000000      -nan      -nan      -nan 10.000000 12.000000 32.000000 32.000000 32.000000 32.000000 12.000000 10.000000      -nan      -nan      -nan      -nan 
dram[3]:      -nan      -nan      -nan      -nan 10.000000 12.000000 32.000000 32.000000 32.000000 32.000000 12.000000 10.000000      -nan      -nan      -nan      -nan 
dram[4]:      -nan      -nan      -nan      -nan 10.000000 12.000000 32.000000 32.000000 32.000000 32.000000 15.000000 10.000000      -nan      -nan      -nan      -nan 
dram[5]:      -nan      -nan      -nan      -nan 10.000000 12.000000 32.000000 32.000000 32.000000 32.000000 10.000000 10.000000      -nan      -nan      -nan      -nan 
average row locality = 1035/53 = 19.528301
number of total memory accesses made:
dram[0]:         0         0         0         0         0         0         0         0         0         0         0         0         0         0         0         0 
dram[1]:         0         0         0         0         0         0         0         0         0         0         0         0         0         0         0         0 
dram[2]:         0         0         0         0         0         0         0         0         0         0         0         0         0         0         0         0 
dram[3]:         0         0         0         0         0         0         0         0         0         0         0         0         0         0         0         0 
dram[4]:         0         0         0         0         0         0         0         0         0         0         0         0         0         0         0         0 
dram[5]:         0         0         0         0         0         0         0         0         0         0         0         0         0         0         0         0 
total accesses: 0
min_bank_accesses = 0!
min_chip_accesses = 0!
number of total read accesses:
dram[0]:         3         0         0         0        10        10        32        32        32        32        12        10         0         0         0         0 
dram[1]:         2         0         0         0        10        10        32        32        32        32        12        10         0         0         0         0 
dram[2]:         1         0         0         0        10        12        32        32        32        32        12        10         0         0         0         0 
dram[3]:         0         0         0         0        10        12        32        32        32        32        12        10         0         0         0         0 
dram[4]:         0         0         0         0        10        12        32        32        32        32        11        10         0         0         0         0 
dram[5]:         0         0         0         0        10        12        32        32        32        32        10        10         0         0         0         0 
total reads: 1031
min_bank_accesses = 0!
chip skew: 173/170 = 1.02
number of total write accesses:
dram[0]:         0         0         0         0         0         0         0         0         0         0         0         0         0         0         0         0 
dram[1]:         0         0         0         0         0         0         0         0         0         0         0         0         0         0         0         0 
dram[2]:         0         0         0         0         0         0         0         0         0         0         0         0         0         0         0         0 
dram[3]:         0         0         0         0         0         0         0         0         0         0         0         0         0         0         0         0 
dram[4]:         0         0         0         0         0         0         0         0         0         0         4         0         0         0         0         0 
dram[5]:         0         0         0         0         0         0         0         0         0         0         0         0         0         0         0         0 
total reads: 4
min_bank_accesses = 0!
min_chip_accesses = 0!
average mf latency per bank:
dram[0]:       1262    none      none      none         395       350       383       482       429       451       416       477    none      none      none      none  
dram[1]:          0    none      none      none         435       355       422       487       484       461       534       506    none      none      none      none  
dram[2]:          0    none      none      none         404       344       375       488       445       475       443       408    none      none      none      none  
dram[3]:     none      none      none      none         433       341       403       443       451       468       527       483    none      none      none      none  
dram[4]:     none      none      none      none         385       388       428       528       451       506       658       533    none      none      none      none  
dram[5]:     none      none      none      none         397       352       395       496       427       484       495       427    none      none      none      none  
maximum mf latency per bank:
dram[0]:        278         0         0         0       546       475       548       625       561       618       659       679         0         0         0         0
dram[1]:          0         0         0         0       593       551       585       627       594       628       718       698         0         0         0         0
dram[2]:          0         0         0         0       565       424       545       672       620       642       668       709         0         0         0         0
dram[3]:          0         0         0         0       551       422       563       587       642       614       678       674         0         0         0         0
dram[4]:          0         0         0         0       542       634       570       710       559       696       629       750         0         0         0         0
dram[5]:          0         0         0         0       525       476       509       714       537       700       606       718         0         0         0         0
Memory Partition 0: 
Cache L2_bank_000:
MSHR contents

Cache L2_bank_001:
MSHR contents

In Dram Latency Queue (total = 0): 
DRAM[0]: 16 bks, busW=4 BL=8 CL=12, tRRD=2 tCCD=6, tRCD=12 tRAS=28 tRP=12 tRC=40
n_cmd=10328 n_nop=9969 n_act=11 n_pre=2 n_req=173 n_rd=346 n_write=0 bw_util=0.067
n_activity=1018 dram_eff=0.6798
bk0: 6a 10256i bk1: 0a 10326i bk2: 0a 10330i bk3: 0a 10330i bk4: 20a 10228i bk5: 20a 10257i bk6: 64a 9989i bk7: 64a 9733i bk8: 64a 10069i bk9: 64a 9789i bk10: 24a 9913i bk11: 20a 9927i bk12: 0a 10326i bk13: 0a 10326i bk14: 0a 10327i bk15: 0a 10328i 
dram_util_bins: 0 0 0 0 0 0 0 0 0 0
dram_eff_bins: 0 0 0 0 0 0 0 0 0 0
mrqq: max=16 avg=0.656081
Memory Partition 1: 
Cache L2_bank_002:
MSHR contents

Cache L2_bank_003:
MSHR contents

In Dram Latency Queue (total = 0): 
DRAM[1]: 16 bks, busW=4 BL=8 CL=12, tRRD=2 tCCD=6, tRCD=12 tRAS=28 tRP=12 tRC=40
n_cmd=10328 n_nop=9975 n_act=9 n_pre=0 n_req=172 n_rd=344 n_write=0 bw_util=0.06662
n_activity=901 dram_eff=0.7636
bk0: 4a 10307i bk1: 0a 10328i bk2: 0a 10329i bk3: 0a 10330i bk4: 20a 10255i bk5: 20a 10246i bk6: 64a 10002i bk7: 64a 9730i bk8: 64a 10030i bk9: 64a 9771i bk10: 24a 9749i bk11: 20a 9992i bk12: 0a 10326i bk13: 0a 10327i bk14: 0a 10327i bk15: 0a 10328i 
dram_util_bins: 0 0 0 0 0 0 0 0 0 0
dram_eff_bins: 0 0 0 0 0 0 0 0 0 0
mrqq: max=16 avg=0.697037
Memory Partition 2: 
Cache L2_bank_004:
MSHR contents

Cache L2_bank_005:
MSHR contents

In Dram Latency Queue (total = 0): 
DRAM[2]: 16 bks, busW=4 BL=8 CL=12, tRRD=2 tCCD=6, tRCD=12 tRAS=28 tRP=12 tRC=40
n_cmd=10328 n_nop=9973 n_act=9 n_pre=0 n_req=173 n_rd=346 n_write=0 bw_util=0.067
n_activity=920 dram_eff=0.7522
bk0: 2a 10313i bk1: 0a 10329i bk2: 0a 10331i bk3: 0a 10331i bk4: 20a 10244i bk5: 24a 10209i bk6: 64a 9985i bk7: 64a 9706i bk8: 64a 10037i bk9: 64a 9769i bk10: 24a 9775i bk11: 20a 9912i bk12: 0a 10326i bk13: 0a 10326i bk14: 0a 10326i bk15: 0a 10327i 
dram_util_bins: 0 0 0 0 0 0 0 0 0 0
dram_eff_bins: 0 0 0 0 0 0 0 0 0 0
mrqq: max=16 avg=0.711561
Memory Partition 3: 
Cache L2_bank_006:
MSHR contents

Cache L2_bank_007:
MSHR contents

In Dram Latency Queue (total = 0): 
DRAM[3]: 16 bks, busW=4 BL=8 CL=12, tRRD=2 tCCD=6, tRCD=12 tRAS=28 tRP=12 tRC=40
n_cmd=10328 n_nop=9976 n_act=8 n_pre=0 n_req=172 n_rd=344 n_write=0 bw_util=0.06662
n_activity=858 dram_eff=0.8019
bk0: 0a 10328i bk1: 0a 10330i bk2: 0a 10331i bk3: 0a 10331i bk4: 20a 10207i bk5: 24a 10235i bk6: 64a 9993i bk7: 64a 9727i bk8: 64a 10057i bk9: 64a 9801i bk10: 24a 9820i bk11: 20a 9897i bk12: 0a 10325i bk13: 0a 10325i bk14: 0a 10327i bk15: 0a 10327i 
dram_util_bins: 0 0 0 0 0 0 0 0 0 0
dram_eff_bins: 0 0 0 0 0 0 0 0 0 0
mrqq: max=16 avg=0.694713
Memory Partition 4: 
Cache L2_bank_008:
MSHR contents

Cache L2_bank_009:
MSHR contents

In Dram Latency Queue (total = 0): 
DRAM[4]: 16 bks, busW=4 BL=8 CL=12, tRRD=2 tCCD=6, tRCD=12 tRAS=28 tRP=12 tRC=40
n_cmd=10328 n_nop=9974 n_act=8 n_pre=0 n_req=175 n_rd=342 n_write=4 bw_util=0.067
n_activity=885 dram_eff=0.7819
bk0: 0a 10326i bk1: 0a 10327i bk2: 0a 10330i bk3: 0a 10330i bk4: 20a 10236i bk5: 24a 10231i bk6: 64a 9981i bk7: 64a 9743i bk8: 64a 10058i bk9: 64a 9815i bk10: 22a 9846i bk11: 20a 9990i bk12: 0a 10326i bk13: 0a 10326i bk14: 0a 10326i bk15: 0a 10326i 
dram_util_bins: 0 0 0 0 0 0 0 0 0 0
dram_eff_bins: 0 0 0 0 0 0 0 0 0 0
mrqq: max=16 avg=0.703815
Memory Partition 5: 
Cache L2_bank_010:
MSHR contents

Cache L2_bank_011:
MSHR contents

In Dram Latency Queue (total = 0): 
DRAM[5]: 16 bks, busW=4 BL=8 CL=12, tRRD=2 tCCD=6, tRCD=12 tRAS=28 tRP=12 tRC=40
n_cmd=10328 n_nop=9980 n_act=8 n_pre=0 n_req=170 n_rd=340 n_write=0 bw_util=0.06584
n_activity=885 dram_eff=0.7684
bk0: 0a 10326i bk1: 0a 10327i bk2: 0a 10330i bk3: 0a 10331i bk4: 20a 10264i bk5: 24a 10238i bk6: 64a 10012i bk7: 64a 9732i bk8: 64a 10029i bk9: 64a 9815i bk10: 20a 9816i bk11: 20a 9918i bk12: 0a 10326i bk13: 0a 10326i bk14: 0a 10326i bk15: 0a 10326i 
dram_util_bins: 0 0 0 0 0 0 0 0 0 0
dram_eff_bins: 0 0 0 0 0 0 0 0 0 0
mrqq: max=16 avg=0.697715

========= L2 cache stats =========
L2_cache_bank[0]: Access = 131, Miss = 89, Miss_rate = 0.679, Pending_hits = 9, Reservation_fails = 404
L2_cache_bank[1]: Access = 84, Miss = 84, Miss_rate = 1.000, Pending_hits = 0, Reservation_fails = 130
L2_cache_bank[2]: Access = 116, Miss = 88, Miss_rate = 0.759, Pending_hits = 6, Reservation_fails = 269
L2_cache_bank[3]: Access = 84, Miss = 84, Miss_rate = 1.000, Pending_hits = 0, Reservation_fails = 159
L2_cache_bank[4]: Access = 101, Miss = 87, Miss_rate = 0.861, Pending_hits = 3, Reservation_fails = 153
L2_cache_bank[5]: Access = 86, Miss = 86, Miss_rate = 1.000, Pending_hits = 0, Reservation_fails = 115
L2_cache_bank[6]: Access = 86, Miss = 86, Miss_rate = 1.000, Pending_hits = 0, Reservation_fails = 71
L2_cache_bank[7]: Access = 86, Miss = 86, Miss_rate = 1.000, Pending_hits = 0, Reservation_fails = 72
L2_cache_bank[8]: Access = 116, Miss = 85, Miss_rate = 0.733, Pending_hits = 3, Reservation_fails = 81
L2_cache_bank[9]: Access = 86, Miss = 86, Miss_rate = 1.000, Pending_hits = 0, Reservation_fails = 167
L2_cache_bank[10]: Access = 84, Miss = 84, Miss_rate = 1.000, Pending_hits = 0, Reservation_fails = 80
L2_cache_bank[11]: Access = 86, Miss = 86, Miss_rate = 1.000, Pending_hits = 0, Reservation_fails = 135
L2_total_cache_accesses = 1146
L2_total_cache_misses = 1031
L2_total_cache_miss_rate = 0.8997
L2_total_cache_pending_hits = 21
L2_total_cache_reservation_fails = 1836
L2_total_cache_breakdown:
	L2_cache_stats_breakdown[GLOBAL_ACC_R][MISS] = 1024
	L2_cache_stats_breakdown[GLOBAL_ACC_R][RESERVATION_FAIL] = 1252
	L2_cache_stats_breakdown[CONST_ACC_R][HIT] = 11
	L2_cache_stats_breakdown[CONST_ACC_R][HIT_RESERVED] = 3
	L2_cache_stats_breakdown[CONST_ACC_R][MISS] = 1
	L2_cache_stats_breakdown[CONST_ACC_R][RESERVATION_FAIL] = 97
	L2_cache_stats_breakdown[GLOBAL_ACC_W][HIT] = 28
	L2_cache_stats_breakdown[GLOBAL_ACC_W][HIT_RESERVED] = 3
	L2_cache_stats_breakdown[GLOBAL_ACC_W][MISS] = 1
	L2_cache_stats_breakdown[GLOBAL_ACC_W][RESERVATION_FAIL] = 23
	L2_cache_stats_breakdown[INST_ACC_R][HIT] = 55
	L2_cache_stats_breakdown[INST_ACC_R][HIT_RESERVED] = 15
	L2_cache_stats_breakdown[INST_ACC_R][MISS] = 5
	L2_cache_stats_breakdown[INST_ACC_R][RESERVATION_FAIL] = 464
L2_cache_data_port_util = 0.003
L2_cache_fill_port_util = 0.044

icnt_total_pkts_mem_to_simt=5572
icnt_total_pkts_simt_to_mem=1178
LD_mem_lat_dist  0 0 0 0 0 0 0 0 0 0 0 0 0 0 0 0 0 0 0 0 0 0 0 0 0 0 0
ST_mem_lat_dist  0 0 0 0 0 0 0 0 0 0 0 0 0 0 0 0 0 0 0 0 0 0 0 0 0 0 0
----------------------------Interconnect-DETAILS--------------------------------
Class 0:
Packet latency average = 26.0589
	minimum = 6
	maximum = 110
Network latency average = 19.8438
	minimum = 6
	maximum = 87
Slowest packet = 591
Flit latency average = 17.8865
	minimum = 6
	maximum = 83
Slowest flit = 5925
Fragmentation average = 0
	minimum = 0
	maximum = 0
Injected packet rate average = 0.0108484
	minimum = 0.00920128 (at node 0)
	maximum = 0.0167412 (at node 15)
Accepted packet rate average = 0.0108484
	minimum = 0.00920128 (at node 0)
	maximum = 0.0167412 (at node 15)
Injected flit rate average = 0.0319489
	minimum = 0.00945687 (at node 0)
	maximum = 0.0798722 (at node 15)
Accepted flit rate average= 0.0319489
	minimum = 0.0107348 (at node 16)
	maximum = 0.0653035 (at node 1)
Injected packet length average = 2.94503
Accepted packet length average = 2.94503
Total in-flight flits = 0 (0 measured)
====== Overall Traffic Statistics ======
====== Traffic class 0 ======
Packet latency average = 26.0589 (1 samples)
	minimum = 6 (1 samples)
	maximum = 110 (1 samples)
Network latency average = 19.8438 (1 samples)
	minimum = 6 (1 samples)
	maximum = 87 (1 samples)
Flit latency average = 17.8865 (1 samples)
	minimum = 6 (1 samples)
	maximum = 83 (1 samples)
Fragmentation average = 0 (1 samples)
	minimum = 0 (1 samples)
	maximum = 0 (1 samples)
Injected packet rate average = 0.0108484 (1 samples)
	minimum = 0.00920128 (1 samples)
	maximum = 0.0167412 (1 samples)
Accepted packet rate average = 0.0108484 (1 samples)
	minimum = 0.00920128 (1 samples)
	maximum = 0.0167412 (1 samples)
Injected flit rate average = 0.0319489 (1 samples)
	minimum = 0.00945687 (1 samples)
	maximum = 0.0798722 (1 samples)
Accepted flit rate average = 0.0319489 (1 samples)
	minimum = 0.0107348 (1 samples)
	maximum = 0.0653035 (1 samples)
Injected packet size average = 2.94503 (1 samples)
Accepted packet size average = 2.94503 (1 samples)
Hops average = 1 (1 samples)
----------------------------END-of-Interconnect-DETAILS-------------------------


gpgpu_simulation_time = 0 days, 0 hrs, 0 min, 3 sec (3 sec)
gpgpu_simulation_rate = 780906 (inst/sec)
gpgpu_simulation_rate = 2608 (cycle/sec)
3.206047 s
Copying data from device to host...0.000176 s
Verifying results...TEST PASSED

